
Warning: Missing .endc statement!
    This may cause subsequent errors.


Circuit:  -------------- lab1 tcfe -----------------

Doing analysis at TEMP = 27.000000 and TNOM = 27.000000


No. of Data Rows : 1
********************************************
Operating point
********************************************
---------Debugging Values-----------
Potential Difference
Voltage at Nodes
op_TAB
n2vv = 5.070727e+00
n3vv = 4.825468e+00
n4vv = 4.304579e+00
n5vv = 4.860091e+00
n6vv = 8.720760e+00
n7vv = -2.93990e+00
n8vv = -1.95020e+00
v(n5vv, n7vv) = 7.799989e+00
@r1[i] = -2.40330e-04
@r2[i] = -2.51475e-04
@r3[i] = -1.11453e-05
@r4[i] = -1.20919e-03
@r5[i] = -1.25166e-03
@r6[i] = 9.688613e-04
@r7[i] = 9.688613e-04
@gb[i] = -2.51475e-04
op_END
.end: no such command available in ngspice
Doing analysis at TEMP = 27.000000 and TNOM = 27.000000


No. of Data Rows : 1
	Node                                  Voltage
	----                                  -------
	----	-------
	n8vv                             -1.95020e+00
	n5vv                             4.860091e+00
	n3vv                             4.825468e+00
	n4vv                             4.304579e+00
	nzvv                             0.000000e+00
	n6vv                             8.720760e+00
	n7vv                             -2.93990e+00
	n2vv                             5.070727e+00

	Source	Current
	------	-------

	@r7[i]                           9.688613e-04
	@r6[i]                           9.688613e-04
	@r5[i]                           -1.25166e-03
	@r4[i]                           -1.20919e-03
	@r3[i]                           -1.11453e-05
	@r2[i]                           -2.51475e-04
	@r1[i]                           -2.40330e-04
	@gb[i]                           -2.51475e-04
	va#branch                        -2.40330e-04
	vzero#branch                     9.688613e-04
	hc#branch                        3.132473e-05

 Resistor models (Simple linear resistor)
      model                     R

        rsh                     0
     narrow                     0
      short                     0
        tc1                     0
        tc2                     0
        tce                     0
       defw                 1e-05
          l                 1e-05
         kf                     0
         af                     0
          r                     0
     bv_max                 1e+99
         lf                     1
         wf                     1
         ef                     1

 CCVS: Linear current controlled current source
     device                    hc
          i           3.13247e-05
          v               7.79999
          p           0.000244333

 Isource: Independent current source
     device                    id
         dc            0.00100019
          m                     1
      acmag                     0
      pulse         -
        sin         -
        exp         -
        pwl         -
       sffm         -
         am         -
    trnoise         -
   trrandom         -
          v               11.6607
          p            -0.0116628
    current            0.00100019

 Resistor: Simple linear resistor
     device                    r7                    r6                    r5
      model                     R                     R                     R
 resistance               1021.51               2012.88               3084.44
         ac               1021.51               2012.88               3084.44
      dtemp                     0                     0                     0
     bv_max                 1e+99                 1e+99                 1e+99
      noisy                     1                     1                     1
          i           0.000968861           0.000968861           -0.00125166
          p           0.000958883            0.00188947            0.00483225

 Resistor: Simple linear resistor
     device                    r4                    r3                    r2
      model                     R                     R                     R
 resistance               4019.29               3106.51               2071.33
         ac               4019.29               3106.51               2071.33
      dtemp                     0                     0                     0
     bv_max                 1e+99                 1e+99                 1e+99
      noisy                     1                     1                     1
          i           -0.00120919          -1.11453e-05          -0.000251475
          p            0.00587678           3.85886e-07           0.000130991

 Resistor: Simple linear resistor
     device                    r1
      model                     R
 resistance               1020.51
         ac               1020.51
      dtemp                     0
     bv_max                 1e+99
      noisy                     1
          i           -0.00024033
          p           5.89432e-05

 VCCS: Voltage controlled current source
     device                    gb
          m                     0
          i          -0.000251475
          v               4.41618
          p           -0.00111056

 Vsource: Independent voltage source
     device                 vzero                    va
         dc                     0               5.07073
      acmag                     0                     0
      pulse         -         -
        sin         -         -
        exp         -         -
        pwl         -         -
       sffm         -         -
         am         -         -
    trnoise         -         -
   trrandom         -         -
          i           0.000968861           -0.00024033
          p                    -0            0.00121865


Total analysis time (seconds) = 0

Total elapsed time (seconds) = 0.513 

Total DRAM available = 3836.469 MB.
DRAM currently available =  399.547 MB.
Total ngspice program size =   21.852 MB.
Resident set size =    9.648 MB.
Shared ngspice pages =    7.773 MB.
Text (code) pages =    5.070 MB.
Stack = 0 bytes.
Library pages =    2.109 MB.

